3
Lattice="3.1989482918852916 -0.0 0.0 1.5994741363639602 2.7703704049879736 0.0 0.0 0.0 12.73104751283661" Properties=species:S:1:pos:R:3 energy=-758.425781843113 pbc="T T T"
Mo      -0.00096332       0.00488984       0.05446964
S        1.59850542       0.92834360       1.58428981
Se       1.59850543       0.92834347      -1.63875945
